Version 4.1
SHEET 1 880 680
WIRE 112 -160 16 -160
WIRE 16 -112 16 -160
WIRE 112 -32 112 -160
WIRE 112 -32 64 -32
WIRE 112 0 112 -32
WIRE 16 32 16 -32
WIRE 64 32 64 -32
WIRE 0 80 -112 80
WIRE 112 80 80 80
WIRE 192 80 112 80
WIRE 240 80 192 80
WIRE 352 80 336 80
WIRE 416 80 352 80
WIRE 528 80 416 80
WIRE 688 80 528 80
WIRE -112 112 -112 80
WIRE 112 112 112 80
WIRE 192 128 192 80
WIRE 352 128 352 80
WIRE 416 128 416 80
WIRE 528 128 528 80
WIRE 688 160 688 80
WIRE 112 240 112 192
WIRE 192 240 192 192
WIRE 192 240 112 240
WIRE 224 240 192 240
WIRE 256 240 256 128
WIRE 256 240 224 240
WIRE 352 240 352 192
WIRE 352 240 256 240
WIRE 224 256 224 240
WIRE -112 368 -112 192
WIRE 224 368 224 336
WIRE 224 368 -112 368
WIRE 416 368 416 192
WIRE 416 368 224 368
WIRE 528 368 528 192
WIRE 528 368 416 368
WIRE 688 368 688 240
WIRE 688 368 528 368
WIRE 224 400 224 368
FLAG 224 400 0
FLAG 112 0 0
SYMBOL voltage -112 96 R0
WINDOW 123 0 0 Left 0
WINDOW 39 0 0 Left 0
SYMATTR InstName V1
SYMATTR Value 12
SYMBOL cap 400 128 R0
SYMATTR InstName C1
SYMATTR Value 10µ
SYMBOL cap 512 128 R0
SYMATTR InstName C2
SYMATTR Value 100µ
SYMBOL res 672 144 R0
SYMATTR InstName R1
SYMATTR Value 12
SYMBOL sw 96 80 R90
SYMATTR InstName S1
SYMATTR Value MYSW
SYMBOL voltage 16 -16 R180
WINDOW 0 24 96 Left 2
WINDOW 3 24 16 Left 2
WINDOW 123 0 0 Left 0
WINDOW 39 24 68 Left 2
SYMATTR InstName V2
SYMATTR Value PULSE(0 1 0.01 0.1u 0 1 1.1 1)
SYMBOL pmos 336 128 M270
SYMATTR InstName M1
SYMATTR Value AO6407
SYMBOL res 96 96 R0
WINDOW 3 -93 140 Left 2
SYMATTR InstName R2
SYMATTR Value 1000000
SYMBOL res 208 240 R0
SYMATTR InstName R3
SYMATTR Value 22000
SYMBOL cap 336 128 R0
SYMATTR InstName C3
SYMATTR Value 10n
SYMBOL cap 176 128 R0
SYMATTR InstName C4
SYMATTR Value 100n
TEXT -520 344 Left 2 !.tran 0 0.02 0 1u
TEXT -288 40 Left 2 !.model MYSW SW()
